New object=circuit.Ball_State
~ basekv=30 pu=1.04 MVAsc3=200000 MVAsc1=210000 bus1=SourceBus